/*--------------------------------*- C++ -*----------------------------------*\
| =========                 |                                                 |
| \\      /  F ield         | OpenFOAM: The Open Source CFD Toolbox           |
|  \\    /   O peration     | Version:  2112                                  |
|   \\  /    A nd           | Website:  www.openfoam.com                      |
|    \\/     M anipulation  |                                                 |
\*---------------------------------------------------------------------------*/
FoamFile
{
    version     2.0;
    format      ascii;
    arch        "LSB;label=32;scalar=64";
    class       polyBoundaryMesh;
    location    "constant/polyMesh";
    object      boundary;
}
// * * * * * * * * * * * * * * * * * * * * * * * * * * * * * * * * * * * * * //

3
(
    walls
    {
        type            wall;
        inGroups        1(wall);
        nFaces          249;
        startFace       49053;
    }
    frontAndBack
    {
        type            empty;
        inGroups        1(empty);
        nFaces          49302;
        startFace       49302;
    }
    farfield
    {
        type            patch;
        nFaces          249;
        startFace       98604;
    }
)

// ************************************************************************* //
